Version 4
SHEET 1 3732 1012
WIRE -480 -1072 -624 -1072
WIRE -320 -1072 -400 -1072
WIRE -624 -992 -624 -1072
WIRE -560 -992 -624 -992
WIRE -832 -880 -1024 -880
WIRE -624 -832 -624 -992
WIRE -592 -832 -624 -832
WIRE -496 -816 -496 -992
WIRE -496 -816 -528 -816
WIRE -448 -816 -496 -816
WIRE -320 -816 -320 -1072
WIRE -320 -816 -368 -816
WIRE -16 -816 -320 -816
WIRE 384 -816 -16 -816
WIRE 1696 -816 384 -816
WIRE -592 -800 -832 -800
WIRE 912 -624 832 -624
WIRE 1040 -624 976 -624
WIRE 1312 -608 1232 -608
WIRE 1440 -608 1376 -608
WIRE -800 -544 -880 -544
WIRE -672 -544 -736 -544
WIRE 832 -544 832 -624
WIRE 832 -544 768 -544
WIRE 912 -544 832 -544
WIRE 1040 -544 1040 -624
WIRE 1040 -544 992 -544
WIRE -1312 -528 -1392 -528
WIRE -1184 -528 -1248 -528
WIRE -400 -528 -480 -528
WIRE -272 -528 -336 -528
WIRE 1232 -528 1232 -608
WIRE 1312 -528 1232 -528
WIRE 1440 -528 1440 -608
WIRE 1440 -528 1392 -528
WIRE 1696 -528 1696 -816
WIRE 1824 -528 1696 -528
WIRE 1968 -512 1888 -512
WIRE 1824 -496 1776 -496
WIRE -880 -464 -880 -544
WIRE -880 -464 -944 -464
WIRE -800 -464 -880 -464
WIRE -672 -464 -672 -544
WIRE -672 -464 -720 -464
WIRE -1392 -448 -1392 -528
WIRE -1392 -448 -1456 -448
WIRE -1312 -448 -1392 -448
WIRE -1184 -448 -1184 -528
WIRE -1184 -448 -1232 -448
WIRE -480 -448 -480 -528
WIRE -400 -448 -480 -448
WIRE -272 -448 -272 -528
WIRE -272 -448 -320 -448
WIRE -16 -448 -16 -816
WIRE 112 -448 -16 -448
WIRE 256 -432 176 -432
WIRE 448 -432 256 -432
WIRE 112 -416 64 -416
WIRE 448 -400 448 -432
WIRE 832 -352 832 -544
WIRE 912 -352 832 -352
WIRE 1040 -336 1040 -544
WIRE 1040 -336 976 -336
WIRE 1088 -336 1040 -336
WIRE 1232 -336 1232 -528
WIRE 1232 -336 1168 -336
WIRE 1312 -336 1232 -336
WIRE 576 -320 448 -320
WIRE 672 -320 640 -320
WIRE 768 -320 672 -320
WIRE 912 -320 848 -320
WIRE 1440 -320 1440 -528
WIRE 1440 -320 1376 -320
WIRE 1520 -320 1440 -320
WIRE 1648 -320 1584 -320
WIRE 1776 -320 1776 -496
WIRE 1776 -320 1728 -320
WIRE 1824 -320 1776 -320
WIRE 1968 -320 1968 -512
WIRE 1968 -320 1904 -320
WIRE 672 -304 672 -320
WIRE 1312 -304 1232 -304
WIRE -880 -272 -880 -464
WIRE -800 -272 -880 -272
WIRE 1232 -272 1232 -304
WIRE -1392 -256 -1392 -448
WIRE -1312 -256 -1392 -256
WIRE -672 -256 -672 -464
WIRE -672 -256 -736 -256
WIRE -624 -256 -672 -256
WIRE -480 -256 -480 -448
WIRE -480 -256 -544 -256
WIRE -400 -256 -480 -256
WIRE -1184 -240 -1184 -448
WIRE -1184 -240 -1248 -240
WIRE -1136 -240 -1184 -240
WIRE -1040 -240 -1072 -240
WIRE -944 -240 -1040 -240
WIRE -800 -240 -864 -240
WIRE -272 -240 -272 -448
WIRE -272 -240 -336 -240
WIRE -192 -240 -272 -240
WIRE -64 -240 -128 -240
WIRE 64 -240 64 -416
WIRE 64 -240 16 -240
WIRE 112 -240 64 -240
WIRE 256 -240 256 -432
WIRE 256 -240 192 -240
WIRE 1776 -240 1776 -320
WIRE 1824 -240 1776 -240
WIRE 1968 -240 1968 -320
WIRE 1968 -240 1888 -240
WIRE -1312 -224 -1616 -224
WIRE -1040 -224 -1040 -240
WIRE -400 -224 -480 -224
WIRE 384 -208 384 -816
WIRE 448 -208 448 -240
WIRE 448 -208 384 -208
WIRE -480 -192 -480 -224
WIRE -1616 -176 -1616 -224
WIRE 64 -160 64 -240
WIRE 112 -160 64 -160
WIRE 256 -160 256 -240
WIRE 256 -160 176 -160
WIRE 1776 -160 1776 -240
WIRE 1824 -160 1776 -160
WIRE 1968 -160 1968 -240
WIRE 1968 -160 1888 -160
WIRE 64 -80 64 -160
WIRE 112 -80 64 -80
WIRE 256 -80 256 -160
WIRE 256 -80 176 -80
WIRE 1776 -64 1776 -160
WIRE 1824 -64 1776 -64
WIRE 1968 -64 1968 -160
WIRE 1968 -64 1888 -64
WIRE 64 16 64 -80
WIRE 112 16 64 16
WIRE 256 16 256 -80
WIRE 256 16 176 16
FLAG -1280 -352 0
FLAG -1280 -128 0
FLAG -1536 -448 0
FLAG -1616 64 0
FLAG -1040 -144 0
FLAG -768 -368 0
FLAG -768 -144 0
FLAG -1024 -464 0
FLAG -1024 -800 0
FLAG -832 -720 0
FLAG 144 -320 0
FLAG 144 -544 0
FLAG -368 -352 0
FLAG -368 -128 0
FLAG -480 -192 0
FLAG -560 -928 0
FLAG -560 -704 0
FLAG 672 -224 0
FLAG 944 -448 0
FLAG 944 -224 0
FLAG 688 -544 0
FLAG 1856 -400 0
FLAG 1856 -624 0
FLAG 1344 -432 0
FLAG 1344 -208 0
FLAG 1232 -272 0
SYMBOL voltage -1616 -112 R0
WINDOW 3 24 152 Left 2
WINDOW 123 24 124 Left 2
WINDOW 39 0 0 Left 2
SYMATTR Value SINE(0 30e-6 35 3 0 0 50)
SYMATTR Value2 AC 0.0005
SYMATTR InstName V1
SYMBOL Opamps\\UniversalOpamp2 -1280 -240 R0
SYMATTR InstName U2
SYMBOL voltage -1280 -112 R180
WINDOW 0 24 96 Left 2
WINDOW 3 24 16 Left 2
WINDOW 123 0 0 Left 2
WINDOW 39 0 0 Left 2
SYMATTR InstName V4
SYMATTR Value 5
SYMBOL voltage -1280 -256 R180
WINDOW 0 24 96 Left 2
WINDOW 3 24 16 Left 2
WINDOW 123 0 0 Left 2
WINDOW 39 0 0 Left 2
SYMATTR InstName V5
SYMATTR Value 5
SYMBOL res -1216 -464 R90
WINDOW 0 0 56 VBottom 2
WINDOW 3 32 56 VTop 2
SYMATTR InstName R5
SYMATTR Value 100k
SYMBOL res -1440 -464 R90
WINDOW 0 0 56 VBottom 2
WINDOW 3 32 56 VTop 2
SYMATTR InstName R6
SYMATTR Value 18k
SYMBOL cap -1248 -544 R90
WINDOW 0 0 32 VBottom 2
WINDOW 3 32 32 VTop 2
SYMATTR InstName C6
SYMATTR Value 1.8n
SYMBOL cap -1072 -256 R90
WINDOW 0 0 32 VBottom 2
WINDOW 3 32 32 VTop 2
SYMATTR InstName C5
SYMATTR Value 1µ
SYMBOL voltage -1616 -32 R0
WINDOW 123 0 0 Left 2
WINDOW 39 0 0 Left 2
SYMATTR InstName V10
SYMATTR Value 300m
SYMBOL res -1056 -240 R0
SYMATTR InstName R18
SYMATTR Value 100k
SYMBOL voltage -1616 -192 R0
WINDOW 3 24 152 Left 2
WINDOW 123 24 124 Left 2
WINDOW 39 0 0 Left 2
SYMATTR Value SINE(0 1e-3 10 0.5 0 0 10)
SYMATTR Value2 AC 0.0005
SYMATTR InstName V19
SYMBOL Opamps\\UniversalOpamp2 -768 -256 R0
SYMATTR InstName U6
SYMBOL voltage -768 -128 R180
WINDOW 0 24 96 Left 2
WINDOW 3 24 16 Left 2
WINDOW 123 0 0 Left 2
WINDOW 39 0 0 Left 2
SYMATTR InstName V13
SYMATTR Value 5
SYMBOL voltage -768 -272 R180
WINDOW 0 24 96 Left 2
WINDOW 3 24 16 Left 2
WINDOW 123 0 0 Left 2
WINDOW 39 0 0 Left 2
SYMATTR InstName V20
SYMATTR Value 5
SYMBOL res -704 -480 R90
WINDOW 0 0 56 VBottom 2
WINDOW 3 32 56 VTop 2
SYMATTR InstName R17
SYMATTR Value 100k
SYMBOL res -928 -480 R90
WINDOW 0 0 56 VBottom 2
WINDOW 3 32 56 VTop 2
SYMATTR InstName R25
SYMATTR Value 18k
SYMBOL cap -736 -560 R90
WINDOW 0 0 32 VBottom 2
WINDOW 3 32 32 VTop 2
SYMATTR InstName C10
SYMATTR Value 1.8n
SYMBOL res 432 -416 R0
SYMATTR InstName R26
SYMATTR Value 5k
SYMBOL res 432 -336 R0
SYMATTR InstName R27
SYMATTR Value 5k
SYMBOL voltage -1024 -896 R0
WINDOW 123 0 0 Left 2
WINDOW 39 0 0 Left 2
SYMATTR InstName V21
SYMATTR Value 3.3
SYMBOL res -848 -816 R0
SYMATTR InstName R28
SYMATTR Value 100k
SYMBOL res -848 -896 R0
SYMATTR InstName R29
SYMATTR Value 100k
SYMBOL Opamps\\UniversalOpamp2 144 -432 M180
SYMATTR InstName U8
SYMBOL voltage 144 -560 M0
WINDOW 0 24 96 Left 2
WINDOW 3 24 16 Left 2
WINDOW 123 0 0 Left 2
WINDOW 39 0 0 Left 2
SYMATTR InstName V22
SYMATTR Value 5
SYMBOL voltage 144 -416 M0
WINDOW 0 24 96 Left 2
WINDOW 3 24 16 Left 2
WINDOW 123 0 0 Left 2
WINDOW 39 0 0 Left 2
SYMATTR InstName V23
SYMATTR Value 5
SYMBOL res 208 -256 R90
WINDOW 0 0 56 VBottom 2
WINDOW 3 32 56 VTop 2
SYMATTR InstName R30
SYMATTR Value 100k
SYMBOL res 32 -256 R90
WINDOW 0 0 56 VBottom 2
WINDOW 3 32 56 VTop 2
SYMATTR InstName R31
SYMATTR Value 100k
SYMBOL res -848 -256 R90
WINDOW 0 0 56 VBottom 2
WINDOW 3 32 56 VTop 2
SYMATTR InstName R32
SYMATTR Value 18k
SYMBOL Opamps\\UniversalOpamp2 -368 -240 R0
SYMATTR InstName U5
SYMBOL voltage -368 -112 R180
WINDOW 0 24 96 Left 2
WINDOW 3 24 16 Left 2
WINDOW 123 0 0 Left 2
WINDOW 39 0 0 Left 2
SYMATTR InstName V8
SYMATTR Value 5
SYMBOL voltage -368 -256 R180
WINDOW 0 24 96 Left 2
WINDOW 3 24 16 Left 2
WINDOW 123 0 0 Left 2
WINDOW 39 0 0 Left 2
SYMATTR InstName V12
SYMATTR Value 5
SYMBOL res -304 -464 R90
WINDOW 0 0 56 VBottom 2
WINDOW 3 32 56 VTop 2
SYMATTR InstName R8
SYMATTR Value 100k
SYMBOL cap -336 -544 R90
WINDOW 0 0 32 VBottom 2
WINDOW 3 32 32 VTop 2
SYMATTR InstName C4
SYMATTR Value 1.8n
SYMBOL res -640 -240 R270
WINDOW 0 32 56 VTop 2
WINDOW 3 0 56 VBottom 2
SYMATTR InstName R9
SYMATTR Value 18k
SYMBOL cap -128 -256 R90
WINDOW 0 0 32 VBottom 2
WINDOW 3 32 32 VTop 2
SYMATTR InstName C7
SYMATTR Value 1µ
SYMBOL Opamps\\UniversalOpamp2 -560 -816 R0
SYMATTR InstName U7
SYMBOL voltage -560 -688 R180
WINDOW 0 24 96 Left 2
WINDOW 3 24 16 Left 2
WINDOW 123 0 0 Left 2
WINDOW 39 0 0 Left 2
SYMATTR InstName V14
SYMATTR Value 5
SYMBOL voltage -560 -832 R180
WINDOW 0 24 96 Left 2
WINDOW 3 24 16 Left 2
WINDOW 123 0 0 Left 2
WINDOW 39 0 0 Left 2
SYMATTR InstName V15
SYMATTR Value 5
SYMBOL cap -496 -1008 R90
WINDOW 0 0 32 VBottom 2
WINDOW 3 32 32 VTop 2
SYMATTR InstName C8
SYMATTR Value 1.8n
SYMBOL res -352 -832 R90
WINDOW 0 0 56 VBottom 2
WINDOW 3 32 56 VTop 2
SYMATTR InstName R12
SYMATTR Value 100
SYMBOL res -384 -1088 R90
WINDOW 0 0 56 VBottom 2
WINDOW 3 32 56 VTop 2
SYMATTR InstName R13
SYMATTR Value 1k5
SYMBOL LED 176 -176 R90
WINDOW 0 0 32 VBottom 2
WINDOW 3 32 32 VTop 2
SYMATTR InstName D3
SYMATTR Value NSCW100
SYMATTR Description Diode
SYMATTR Type diode
SYMBOL LED 112 -64 R270
WINDOW 0 32 32 VTop 2
WINDOW 3 0 32 VBottom 2
SYMATTR InstName D4
SYMATTR Value NSCW100
SYMATTR Description Diode
SYMATTR Type diode
SYMBOL cap 176 0 R90
WINDOW 0 0 32 VBottom 2
WINDOW 3 32 32 VTop 2
SYMATTR InstName C9
SYMATTR Value 1.8n
SYMBOL cap 640 -336 R90
WINDOW 0 0 32 VBottom 2
WINDOW 3 32 32 VTop 2
SYMATTR InstName C1
SYMATTR Value 1µ
SYMBOL res 656 -320 R0
SYMATTR InstName R1
SYMATTR Value 100k
SYMBOL Opamps\\UniversalOpamp2 944 -336 R0
SYMATTR InstName U1
SYMBOL voltage 944 -208 R180
WINDOW 0 24 96 Left 2
WINDOW 3 24 16 Left 2
WINDOW 123 0 0 Left 2
WINDOW 39 0 0 Left 2
SYMATTR InstName V2
SYMATTR Value 5
SYMBOL voltage 944 -352 R180
WINDOW 0 24 96 Left 2
WINDOW 3 24 16 Left 2
WINDOW 123 0 0 Left 2
WINDOW 39 0 0 Left 2
SYMATTR InstName V3
SYMATTR Value 5
SYMBOL res 1008 -560 R90
WINDOW 0 0 56 VBottom 2
WINDOW 3 32 56 VTop 2
SYMATTR InstName R2
SYMATTR Value 100k
SYMBOL res 784 -560 R90
WINDOW 0 0 56 VBottom 2
WINDOW 3 32 56 VTop 2
SYMATTR InstName R3
SYMATTR Value 18k
SYMBOL cap 976 -640 R90
WINDOW 0 0 32 VBottom 2
WINDOW 3 32 32 VTop 2
SYMATTR InstName C2
SYMATTR Value 1.8n
SYMBOL Opamps\\UniversalOpamp2 1856 -512 M180
SYMATTR InstName U3
SYMBOL voltage 1856 -640 M0
WINDOW 0 24 96 Left 2
WINDOW 3 24 16 Left 2
WINDOW 123 0 0 Left 2
WINDOW 39 0 0 Left 2
SYMATTR InstName V6
SYMATTR Value 5
SYMBOL voltage 1856 -496 M0
WINDOW 0 24 96 Left 2
WINDOW 3 24 16 Left 2
WINDOW 123 0 0 Left 2
WINDOW 39 0 0 Left 2
SYMATTR InstName V7
SYMATTR Value 5
SYMBOL res 1920 -336 R90
WINDOW 0 0 56 VBottom 2
WINDOW 3 32 56 VTop 2
SYMATTR InstName R4
SYMATTR Value 100k
SYMBOL res 1744 -336 R90
WINDOW 0 0 56 VBottom 2
WINDOW 3 32 56 VTop 2
SYMATTR InstName R7
SYMATTR Value 100k
SYMBOL res 864 -336 R90
WINDOW 0 0 56 VBottom 2
WINDOW 3 32 56 VTop 2
SYMATTR InstName R10
SYMATTR Value 18k
SYMBOL Opamps\\UniversalOpamp2 1344 -320 R0
SYMATTR InstName U4
SYMBOL voltage 1344 -192 R180
WINDOW 0 24 96 Left 2
WINDOW 3 24 16 Left 2
WINDOW 123 0 0 Left 2
WINDOW 39 0 0 Left 2
SYMATTR InstName V9
SYMATTR Value 5
SYMBOL voltage 1344 -336 R180
WINDOW 0 24 96 Left 2
WINDOW 3 24 16 Left 2
WINDOW 123 0 0 Left 2
WINDOW 39 0 0 Left 2
SYMATTR InstName V11
SYMATTR Value 5
SYMBOL res 1408 -544 R90
WINDOW 0 0 56 VBottom 2
WINDOW 3 32 56 VTop 2
SYMATTR InstName R11
SYMATTR Value 100k
SYMBOL cap 1376 -624 R90
WINDOW 0 0 32 VBottom 2
WINDOW 3 32 32 VTop 2
SYMATTR InstName C3
SYMATTR Value 1.8n
SYMBOL res 1072 -320 R270
WINDOW 0 32 56 VTop 2
WINDOW 3 0 56 VBottom 2
SYMATTR InstName R14
SYMATTR Value 18k
SYMBOL cap 1584 -336 R90
WINDOW 0 0 32 VBottom 2
WINDOW 3 32 32 VTop 2
SYMATTR InstName C11
SYMATTR Value 1µ
SYMBOL LED 1888 -256 R90
WINDOW 0 0 32 VBottom 2
WINDOW 3 32 32 VTop 2
SYMATTR InstName D1
SYMATTR Value NSCW100
SYMATTR Description Diode
SYMATTR Type diode
SYMBOL LED 1824 -144 R270
WINDOW 0 32 32 VTop 2
WINDOW 3 0 32 VBottom 2
SYMATTR InstName D2
SYMATTR Value NSCW100
SYMATTR Description Diode
SYMATTR Type diode
SYMBOL cap 1888 -80 R90
WINDOW 0 0 32 VBottom 2
WINDOW 3 32 32 VTop 2
SYMATTR InstName C12
SYMATTR Value 1.8n
TEXT -1648 32 Left 2 !;tran 0 10 0
TEXT -1192 88 Left 2 !.ac oct 100 0.1 10000
TEXT 2280 -536 Left 2 ;to ADC
